Version 4
SHEET 1 880 680
WIRE 96 -288 64 -288
WIRE 240 -288 176 -288
WIRE -32 -96 -144 -96
WIRE 64 -96 64 -288
WIRE 64 -96 48 -96
WIRE 112 -96 64 -96
WIRE 240 -80 240 -288
WIRE 240 -80 176 -80
WIRE 352 -80 240 -80
WIRE 400 -80 352 -80
WIRE -32 -64 -144 -64
WIRE 80 -64 48 -64
WIRE 112 -64 80 -64
WIRE 80 -48 80 -64
FLAG 144 -48 0
FLAG 80 32 0
FLAG -624 -144 0
FLAG -480 176 0
FLAG -464 -144 5V
IOPIN -464 -144 In
FLAG -144 -96 5V
IOPIN -144 -96 Out
FLAG 144 -112 5V
IOPIN 144 -112 Out
FLAG -480 16 Vbatt
IOPIN -480 16 In
FLAG -144 -64 Vbatt
IOPIN -144 -64 Out
FLAG 352 0 0
SYMBOL Comparators\\LTC6752 144 -144 R0
WINDOW 0 16 45 Left 2
SYMATTR InstName U1
SYMBOL voltage -480 80 R0
WINDOW 123 0 0 Left 0
WINDOW 39 0 0 Left 0
SYMATTR InstName V2
SYMATTR Value SINE(6.1 1.1 100)
SYMBOL res 64 -80 R90
WINDOW 0 0 56 VBottom 2
WINDOW 3 32 56 VTop 2
SYMATTR InstName 10k
SYMATTR Value 100k
SYMBOL res 96 48 R180
WINDOW 0 36 76 Left 2
WINDOW 3 36 40 Left 2
SYMATTR InstName R2
SYMATTR Value 150k
SYMBOL res 192 -304 R90
WINDOW 0 0 56 VBottom 2
WINDOW 3 32 56 VTop 2
SYMATTR InstName R3
SYMATTR Value 150k
SYMBOL res 64 -112 R90
WINDOW 0 0 56 VBottom 2
WINDOW 3 32 56 VTop 2
SYMATTR InstName R4
SYMATTR Value 100k
SYMBOL voltage -528 -144 R90
WINDOW 0 -32 56 VBottom 2
WINDOW 3 32 56 VTop 2
SYMATTR InstName V3
SYMATTR Value 5
SYMBOL res -448 -160 R90
WINDOW 0 0 56 VBottom 2
WINDOW 3 32 56 VTop 2
SYMATTR InstName R1
SYMATTR Value 0.001
SYMBOL res -464 112 R180
WINDOW 0 36 76 Left 2
WINDOW 3 36 40 Left 2
SYMATTR InstName R5
SYMATTR Value 0.001
SYMBOL res 336 -96 R0
SYMATTR InstName R6
SYMATTR Value 100k
TEXT -888 40 Left 2 !.tran 0 100m 0 0.1M
