Version 4
SHEET 1 880 804
WIRE 304 32 160 32
WIRE 416 32 304 32
WIRE 416 64 416 32
WIRE 160 112 160 32
WIRE 688 144 416 144
WIRE 688 160 688 144
WIRE 208 192 160 192
WIRE 336 192 288 192
WIRE 352 192 336 192
WIRE 64 240 -128 240
WIRE 416 256 416 240
WIRE 416 256 288 256
WIRE 288 288 288 256
WIRE 288 288 160 288
WIRE 336 288 336 192
WIRE 64 576 64 240
WIRE 64 576 48 576
WIRE 192 576 112 576
WIRE 64 592 64 576
WIRE 112 592 112 576
WIRE 160 592 112 592
WIRE 272 608 224 608
WIRE 336 608 272 608
WIRE 48 624 48 576
WIRE 144 624 128 624
WIRE 160 624 144 624
WIRE 336 656 336 608
WIRE 144 704 144 624
WIRE 272 704 272 608
WIRE 272 704 224 704
WIRE 336 784 336 736
FLAG 288 368 0
FLAG 336 368 0
FLAG -208 240 0
FLAG 304 -48 0
FLAG 688 240 0
FLAG 192 496 0
FLAG 336 784 0
FLAG 144 784 0
SYMBOL npn 96 192 R0
SYMATTR InstName Q1
SYMBOL npn 352 144 R0
SYMATTR InstName Q2
SYMBOL res 304 176 R90
WINDOW 0 0 56 VBottom 2
WINDOW 3 32 56 VTop 2
SYMATTR InstName R1
SYMATTR Value 10k
SYMBOL res 144 96 R0
SYMATTR InstName Rc1
SYMATTR Value 22550
SYMBOL res 400 48 R0
SYMATTR InstName Rc2
SYMATTR Value 21666
SYMBOL res 272 272 R0
SYMATTR InstName Re
SYMATTR Value 20k
SYMBOL res 320 272 R0
SYMATTR InstName R2
SYMATTR Value 10k
SYMBOL voltage -112 240 R90
WINDOW 123 0 0 Left 0
WINDOW 39 0 0 Left 0
SYMATTR InstName V1
SYMATTR Value SINE(6.1 2.1 1k)
SYMBOL voltage 304 48 R180
WINDOW 0 24 96 Left 2
WINDOW 3 24 16 Left 2
WINDOW 123 0 0 Left 0
WINDOW 39 0 0 Left 0
SYMATTR InstName V2
SYMATTR Value 5
SYMBOL res 672 144 R0
SYMATTR InstName R5
SYMATTR Value 100k
SYMBOL Comparators\\LTC6752 192 544 R0
SYMATTR InstName U1
SYMBOL voltage 192 592 R180
WINDOW 0 24 96 Left 2
WINDOW 3 24 16 Left 2
SYMATTR InstName V3
SYMATTR Value 5
SYMBOL res 240 688 R90
WINDOW 0 0 56 VBottom 2
WINDOW 3 32 56 VTop 2
SYMATTR InstName R6
SYMATTR Value 27500
SYMBOL res 160 800 R180
WINDOW 0 36 76 Left 2
WINDOW 3 36 40 Left 2
SYMATTR InstName R7
SYMATTR Value 2750
SYMBOL res 32 640 R270
WINDOW 0 32 56 VTop 2
WINDOW 3 0 56 VBottom 2
SYMATTR InstName R8
SYMATTR Value 550
SYMBOL res 320 640 R0
SYMATTR InstName R3
SYMATTR Value 100k
TEXT -228 464 Left 2 !.tran 0 10m 0 100u
